第五章/simulation/2GFM仿真/P_ACdata.m
function [baseMVA, bus, gen, branch] = ACdata
%case 5 nodes    Power flow data for 5 bus, 2 generator case.
%   Please see 'help caseformat' for details on the case file format.
%
%   case file can be used together with dc case files "case5_stagg_....m"
%
%   Network data from ...
%   G.W. Stagg, A.H. El-Abiad, "Computer methods in power system analysis",
%   McGraw-Hill, 1968.
%
%   MATPOWER case file data provided by Jef Beerten.

%% MATPOWER Case Format : Version 1
%%-----  Power Flow Data  -----%%
%% system MVA base
baseMVA = 1000;

%% bus data
%  1        2       3       4       5   6       7       8       9   10         11       12  13
%  BUS_I, BUS_TYPE, PD,     QD,     GS, BS,  BUS_AREA,  VM,     VA, BASE_KV, ZONE,    VMAX, VMIN
%	bus_i	type	Pd      Qd      Gs	Bs      area	Vm      Va	baseKV	 zone     Vmax	Vmin
bus = [
	1       1       0       0       0	0       1       1.0     0      0       1       1.1     0.9;
	2       1       0       0   	0	0       1       1.0 	 0      0       1       1.1     0.9;
	3       1       0   	0       0	0       1       1.0 	 0   	0       1       1.1     0.9;
	4       2       0   	0   	0	0       1       1.05	 0      0       1       1.1     0.9;
	5       1       0       0       0	0       1       1.00	 0    	0       1       1.1     0.9;
	6       2       0       0    	0	0       1       1.00	 0      0       1       1.1     0.9;
	7       1       0       0       0   0       1       1.00	 0      0       1       1.1 	0.9;
	8       1       0       0       0	0       1       1.00	 0      0       1       1.1 	0.9;   
    9       1       0     	0    	0	0       1       1.00	 0      0       1       1.1     0.9;
	10      1       0       0       0	0       1       1.00	 0      0       1       1.1 	0.9;
	11      1       0       0       0	0       1       1.00	 0      0       1       1.1     0.9;
	12       1       0       0       0	0       1       1.0     0      0       1       1.1     0.9;
	13       1       0       0   	0	0       1       1.0 	 0      0       1       1.1     0.9;
	14       1       0   	0       0	0       1       1.0 	 0   	0       1       1.1     0.9;
	15       1       0   	0   	0	0       1       1.05	 0      0       1       1.1     0.9;
	16       1       0       0       0	0       1       1.00	 0    	0       1       1.1     0.9;
	17       1       0       0    	0	0       1       1.00	 0      0       1       1.1     0.9;
	18       1       0       0       0   0       1       1.00	 0      0       1       1.1 	0.9;
	19       1       0       0       0	0       1       1.00	 0      0       1       1.1 	0.9;   
    20       1       0     	0    	0	0       1       1.00	 0      0       1       1.1     0.9;
	21      1       0       0       0	0       1       1.00	 0      0       1       1.1 	0.9;
	22      1       0       0       0	0       1       1.00	 0      0       1       1.1     0.9;
	23       1       0       0       0	0       1       1.0     0      0       1       1.1     0.9;
	24       1       0       0   	0	0       1       1.0 	 0      0       1       1.1     0.9;
	25       1       0   	0       0	0       1       1.0 	 0   	0       1       1.1     0.9;
	26       1       0   	0   	0	0       1       1.05	 0      0       1       1.1     0.9;
	27       1       0       0       0	0       1       1.00	 0    	0       1       1.1     0.9;
	28       1       0       0    	0	0       1       1.00	 0      0       1       1.1     0.9;
	29       1       0       0       0   0       1       1.00	 0      0       1       1.1 	0.9;
	30       1       0       0       0	0       1       1.00	 0      0       1       1.1 	0.9;   
    31       1       0     	0    	0	0       1       1.00	 0      0       1       1.1     0.9;
	32      1       0       0       0	0       1       1.00	 0      0       1       1.1 	0.9;
	33      1       0       0       0	0       1       1.00	 0      0       1       1.1     0.9;
	34       1       0       0       0	0       1       1.00	 0      0       1       1.1 	0.9;   
    35       1       0     	0    	0	0       1       1.00	 0      0       1       1.1     0.9;
	36      1       0       0       0	0       1       1.00	 0      0       1       1.1 	0.9;
	37      1       0       0       0	0       1       1.00	 0      0       1       1.1     0.9;    
	38      1       0       0       0	0       1       1.00	 0      0       1       1.1     0.9;            
    39      3       0       0       0	0       1       1.00	 0      0       1       1.1     0.9;
    ];
%-400MVar£»250MW£»120MW£¬140Mvar£»
%% generator data
%   1       2       3       4      5    6       7           8           9   10
% GEN_BUS, PG,    QG,      QMAX, QMIN, VG,      MBASE,    GEN_STATUS, PMAX, PMIN,
%	bus	  Pg      Qg	   Qmax	 Qmin	Vg      mBase       status	Pmax	Pmin
gen = [
%     1    1000     0   1000     -400    1.0     100     1       1000     0;
%     2    1000     0    5000     -400    1.0     100     1       1000 	 0;
%     3    1000     0    5000     -400    1.0     100     1       1000 	 0;
    4    0     0    5000     -400    1.0     100     1       1000 	 0;
%     5    1000     0   1000     -400    1.0     100     1       1000     0;
    6    0     0    5000     -400    1.0     100     1       1000 	 0;
%     7    1000     0    5000     -400    1.0     100     1       1000 	 0;
%     8    1000     0    5000     -400    1.0     100     1       1000 	 0;
%     9    1000     0   1000     -400    1.0     100     1       1000     0;
%     10    1000     0    5000     -400    1.0     100     1       1000 	 0;
%     11    1000     0    5000     -400    1.0     100     1       1000 	 0;
    39    0     0      10000     -4000    1.0     100     1       100000     -100000;
%     3    0     0    4000     -400    1.03     100 	1       1000     0;
%     4    650     0    2400     -400    1.01     100 	1       1000     0;
    ];

%% branch data
%  1        2       3       4           5           6       7       8       9       10      11          12       13
%  F_BUS,  T_BUS, BR_R,    BR_X,      BR_B,        RATE_A, RATE_B,  RATE_C, TAP,   SHIFT,  BR_STATUS, ANGMIN, ANGMAX,
%	fbus	tbus	r       x           b           rateA	rateB	rateC	ratio	angle	status
branch = [
    1       11       1e-10   1/92.08        0.1      0       0         0      0      0      1;   
    2       15       1e-10   1/66.67        0.1      0       0         0      0      0      1;
    3       19       1e-10   1/83.33        0.1      0       0         0      0      0      1;
    4       28       1e-10   1/117.37       0.1      0       0         0      0      0      1;
    5       29       1e-10   1/92.59        0.1      0       0         0      0      0      1;
    6       31       1e-10   1/116.55       0.1      0       0         0      0      0      1;
    
    7       34       1e-10   1/71.84        0.1      0       0         0      0      0      1;
    8       38       1e-10   1/106.84       0.1      0       0         0      0      0      1;
    9       18       1e-10   1/66.67        0.1      0       0         0      0      0      1;
    10      11       1e-10   1/40.55        0.1      0       0         0      0      0      1;
    11      12       1e-10   1/110.38       0.1      0       0         0      0      0      1;
    12      13       1e-10   1/78.25        0.1      0       0         0      0      0      1;
    
    13      14       1e-10   1/130.21       0.1      0       0         0      0      0      1;
    14      15       1e-10   1/641.03       0.1      0       0         0      0      0      1;
    15      16       1e-10   1/181.16       0.1      0       0         0      0      0      1;
    16      17       1e-10   1/362.32       0.1      0       0         0      0      0      1;
    17      18       1e-10   1/45.91        0.1      0       0         0      0      0      1;
    
    15      20       1e-10   1/203.25       0.1      0       0         0      0      0      1;
    19      20       1e-10   1/387.60       0.1      0       0         0      0      0      1;
    20      21       1e-10   1/38.31        0.1      0       0         0      0      0      1;
    19      22       1e-10   1/387.60       0.1      0       0         0      0      0      1;
    21      22       1e-10   1/38.31        0.1      0       0         0      0      0      1;
    13      23       1e-10   1/129.20       0.1      0       0         0      0      0      1;
    
    22      23	1e-10	0.006059872	0.1	0	0	0	0	0	1;
    23      24	1e-10	0.013020833	0.1	0	0	0	0	0	1;
    24      25	1e-10	0.00563984	0.1	0	0	0	0	0	1;
    25      26	1e-10	0.005339884	0.1	0	0	0	0	0	1;
    12      27	1e-10	0.007980209	0.1	0	0	0	0	0	1;
    26      27	1e-10	0.004920049	0.1	0	0	0	0	0	1;
    25      28	1e-10	0.011700012	0.1	0	0	0	0	0	1;
    28      29	1e-10	0.008280202	0.1	0	0	0	0	0	1;
    25      30	1e-10	0.008099789	0.1	0	0	0	0	0	1;
    30      31	1e-10	0.008399832	0.1	0	0	0	0	0	1;
    31      32	1e-10	0.005760037	0.1	0	0	0	0	0	1;
    25      33	1e-10	0.003539948	0.1	0	0	0	0	0	1;
    32      33	1e-10	0.02099958	0.1	0	0	0	0	0	1;
    11      34	1e-10	0.005159959	0.1	0	0	0	0	0	1;
    34      35	1e-10	0.019011407	0.1	0	0	0	0	0	1;
    26      36	1e-10	0.010379905	0.1	0	0	0	0	0	1;
    35      36	1e-10	0.008819898	0.1	0	0	0	0	0	1;
    35      37	1e-10	0.028441411	0.1	0	0	0	0	0	1;
    35      38	1e-10	0.037495313	0.1	0	0	0	0	0	1;
    37      38	1e-10	0.009059612	0.1	0	0	0	0	0	1;
    32      39	1e-10	0.016321201	0.1	0	0	0	0	0	1;
    9       10	1e-10	0.01499925	0.1	0	0	0	0	0	1;
    14      17	1e-10	0.006719978	0.1	0	0	0	0	0	1; 
     
    ];

branch(:,3)=1e-10;%1e-10
branch(:,5)=branch(:,5)/10;%/8
branch = [branch;
        1       1   inf     inf     0.02	0	0	0	0	0	1;   
    2       2   inf     inf     0.02	0	0	0	0	0	1;   
    3       3   inf     inf     0.02	0	0	0	0	0	1;   
    5       5   inf     inf     0.02	0	0	0	0	0	1;   
    7       7   inf     inf     0.02	0	0	0	0	0	1;   
    8       8   inf     inf     0.02	0	0	0	0	0	1;   
    9       9   inf     inf     0.02	0	0	0	0	0	1;   
    10      10  inf     inf     0.02	0	0	0	0	0	1;   
    11      11   inf     inf     0.02	0	0	0	0	0	1;  ];
return;

